Version 4.1
SHEET 1 880 760
WIRE 448 -16 160 -16
WIRE 752 -16 512 -16
WIRE 688 32 512 32
WIRE 512 112 512 32
WIRE 592 112 512 112
WIRE 688 128 688 32
WIRE 688 128 656 128
WIRE 752 128 752 -16
WIRE 752 128 688 128
WIRE 784 128 752 128
WIRE 48 144 -64 144
WIRE 160 144 160 -16
WIRE 160 144 128 144
WIRE 192 144 160 144
WIRE 368 144 272 144
WIRE 592 144 368 144
WIRE -64 176 -64 144
WIRE 368 192 368 144
FLAG 368 256 0
FLAG 624 160 0
FLAG -224 272 0
FLAG -224 192 5V
FLAG 624 96 5V
FLAG -64 256 0
SYMBOL res 144 128 R90
WINDOW 0 0 56 VBottom 2
WINDOW 3 32 56 VTop 2
SYMATTR InstName R1
SYMATTR Value {R}
SYMBOL res 288 128 R90
WINDOW 0 0 56 VBottom 2
WINDOW 3 32 56 VTop 2
SYMATTR InstName R2
SYMATTR Value {R}
SYMBOL cap 352 192 R0
SYMATTR InstName C1
SYMATTR Value {C}
SYMBOL cap 512 -32 R90
WINDOW 0 0 32 VBottom 2
WINDOW 3 32 32 VTop 2
SYMATTR InstName C2
SYMATTR Value {C}
SYMBOL OpAmps\\UniversalOpAmp2 624 128 R0
SYMATTR InstName U1
SYMATTR Value2 Avol=100k GBW=1.2Meg Slew=0.5Meg
SYMATTR SpiceLine Ilimit=40m Rail=0 Vos=0.6m
SYMATTR SpiceLine2 En=3u Enk=0 In=0 Ink=0 Rin=10Meg
SYMBOL voltage -224 176 R0
WINDOW 123 0 0 Left 0
WINDOW 39 0 0 Left 0
SYMATTR InstName V1
SYMATTR Value 5
SYMBOL voltage -64 160 R0
WINDOW 123 24 124 Left 2
WINDOW 39 0 0 Left 0
SYMATTR Value2 AC 1
SYMATTR InstName V2
SYMATTR Value SINE(1.65 3.3)
TEXT -640 688 Left 2 !.param C 22n
TEXT -640 744 Left 2 !.param R 60k
TEXT -648 640 Left 2 !.ac dec 100 0.1 1000
