Version 4.1
SHEET 1 880 816
WIRE 560 -32 352 -32
WIRE -96 16 -176 16
WIRE 32 16 -32 16
WIRE 144 16 32 16
WIRE 304 16 208 16
WIRE -176 64 -176 16
WIRE -176 64 -320 64
WIRE 32 64 32 16
WIRE 352 80 352 -32
WIRE 416 80 352 80
WIRE 560 96 560 -32
WIRE 560 96 480 96
WIRE 624 96 560 96
WIRE 304 112 304 16
WIRE 416 112 304 112
WIRE 560 144 560 96
WIRE -320 160 -320 64
WIRE 32 176 32 144
WIRE 352 176 32 176
WIRE 352 256 352 176
WIRE 560 256 560 224
WIRE 560 256 352 256
WIRE -176 288 -176 64
WIRE -112 288 -176 288
WIRE 32 288 32 240
WIRE 32 288 -32 288
WIRE 128 288 32 288
WIRE 304 288 304 112
WIRE 304 288 208 288
WIRE 560 288 560 256
FLAG 560 368 0
FLAG 448 128 0
FLAG -480 224 0
FLAG -480 144 5V
FLAG 448 64 5V
FLAG -320 240 0
SYMBOL res 16 48 R0
SYMATTR InstName R1
SYMATTR Value {R/2}
SYMBOL res -128 304 R270
WINDOW 0 32 56 VTop 2
WINDOW 3 0 56 VBottom 2
SYMATTR InstName R2
SYMATTR Value {R}
SYMBOL res 112 304 R270
WINDOW 0 32 56 VTop 2
WINDOW 3 0 56 VBottom 2
SYMATTR InstName R3
SYMATTR Value {R}
SYMBOL res 544 128 R0
SYMATTR InstName R4
SYMATTR Value {R1}
SYMBOL res 544 272 R0
SYMATTR InstName R5
SYMATTR Value {R1*19}
SYMBOL cap 16 176 R0
SYMATTR InstName C1
SYMATTR Value {C*2}
SYMBOL cap -32 0 R90
WINDOW 0 0 32 VBottom 2
WINDOW 3 32 32 VTop 2
SYMATTR InstName C2
SYMATTR Value {C}
SYMBOL cap 208 0 R90
WINDOW 0 0 32 VBottom 2
WINDOW 3 32 32 VTop 2
SYMATTR InstName C3
SYMATTR Value {C}
SYMBOL OpAmps\\UniversalOpAmp2 448 96 R0
SYMATTR InstName U1
SYMATTR Value2 Avol=100k GBW=1.2Meg Slew=0.5Meg
SYMATTR SpiceLine Ilimit=40m Rail=0 Vos=0.6m
SYMATTR SpiceLine2 En=3u Enk=0 In=0 Ink=0 Rin=10Meg
SYMBOL voltage -480 128 R0
WINDOW 123 0 0 Left 0
WINDOW 39 0 0 Left 0
SYMATTR InstName V1
SYMATTR Value 5V
SYMBOL voltage -320 144 R0
WINDOW 123 24 124 Left 2
WINDOW 39 0 0 Left 0
SYMATTR Value2 AC 1
SYMATTR InstName V2
SYMATTR Value SINE(1.65 3.3)
TEXT -800 696 Left 2 !.param C=100n
TEXT -808 752 Left 2 !.param R=30k
TEXT -808 800 Left 2 !.param R1 1k
TEXT -800 632 Left 2 !.ac dec 1000 0.1 500
