Version 4.1
SHEET 1 1264 848
WIRE -512 -96 -560 -96
WIRE -320 -96 -448 -96
WIRE -224 -96 -320 -96
WIRE 688 -64 400 -64
WIRE 992 -64 752 -64
WIRE -992 -48 -1536 -48
WIRE -320 -32 -320 -96
WIRE 32 -32 -112 -32
WIRE -1536 -16 -1536 -48
WIRE -992 -16 -1056 -16
WIRE 928 -16 752 -16
WIRE -1056 0 -1056 -16
WIRE -656 32 -816 32
WIRE -560 32 -560 -96
WIRE -560 32 -656 32
WIRE 752 64 752 -16
WIRE 832 64 752 64
WIRE -992 80 -1056 80
WIRE -320 80 -320 48
WIRE -128 80 -320 80
WIRE -112 80 -112 -32
WIRE -80 80 -112 80
WIRE 928 80 928 -16
WIRE 928 80 896 80
WIRE 992 80 992 -64
WIRE 992 80 928 80
WIRE 1024 80 992 80
WIRE -1536 96 -1536 64
WIRE -1536 96 -1760 96
WIRE 32 96 32 -32
WIRE 32 96 -16 96
WIRE 288 96 32 96
WIRE 400 96 400 -64
WIRE 400 96 368 96
WIRE 432 96 400 96
WIRE 608 96 512 96
WIRE 832 96 608 96
WIRE -1536 112 -1536 96
WIRE -992 112 -1024 112
WIRE -320 112 -320 80
WIRE -160 112 -160 -96
WIRE -80 112 -160 112
WIRE -880 128 -880 96
WIRE 608 144 608 96
WIRE -560 192 -560 32
WIRE -496 192 -560 192
WIRE -320 192 -320 176
WIRE -320 192 -416 192
WIRE -240 192 -320 192
WIRE -160 192 -160 112
WIRE 32 208 32 96
WIRE -1760 224 -1760 96
WIRE -1536 224 -1536 192
WIRE -1024 224 -1024 112
WIRE -1024 224 -1536 224
WIRE -128 304 -128 80
WIRE 32 304 32 288
WIRE 32 304 -128 304
WIRE 32 336 32 304
FLAG 608 208 0
FLAG 864 112 0
FLAG -1856 304 0
FLAG -1760 304 0
FLAG -48 128 0
FLAG 32 416 0
FLAG -1856 224 5V
FLAG -48 64 5V
FLAG 864 48 5V
FLAG -960 128 0
FLAG -1968 304 0
FLAG -1968 224 Vref
FLAG -880 128 Vref
FLAG -960 -64 5V
FLAG -2064 304 0
FLAG -1584 176 0
FLAG -1584 48 0
FLAG -2064 224 EKG
FLAG -1584 0 EKG
FLAG -1584 128 EKG
FLAG -656 32 VIA
FLAG 1024 80 VOUT
SYMBOL res 384 80 R90
WINDOW 0 0 56 VBottom 2
WINDOW 3 32 56 VTop 2
SYMATTR InstName R1
SYMATTR Value {R3}
SYMBOL res 528 80 R90
WINDOW 0 0 56 VBottom 2
WINDOW 3 32 56 VTop 2
SYMATTR InstName R2
SYMATTR Value {R3}
SYMBOL cap 592 144 R0
SYMATTR InstName C1
SYMATTR Value {C2}
SYMBOL cap 752 -80 R90
WINDOW 0 0 32 VBottom 2
WINDOW 3 32 32 VTop 2
SYMATTR InstName C2
SYMATTR Value {C2}
SYMBOL OpAmps\\UniversalOpAmp2 864 80 R0
SYMATTR InstName U1
SYMATTR Value2 Avol=100k GBW=1.2Meg Slew=0.5Meg
SYMATTR SpiceLine Ilimit=40m Rail=0 Vos=0.6m
SYMATTR SpiceLine2 En=3u Enk=0 In=0 Ink=0 Rin=10Meg
SYMBOL voltage -1856 208 R0
WINDOW 123 0 0 Left 0
WINDOW 39 0 0 Left 0
SYMATTR InstName VCC
SYMATTR Value 5
SYMBOL res -336 -48 R0
SYMATTR InstName R3
SYMATTR Value {R1/2}
SYMBOL res 16 192 R0
SYMATTR InstName R4
SYMATTR Value {R2}
SYMBOL res 16 320 R0
SYMATTR InstName R5
SYMATTR Value {R2*19}
SYMBOL res -144 176 R90
WINDOW 0 0 56 VBottom 2
WINDOW 3 32 56 VTop 2
SYMATTR InstName R6
SYMATTR Value {R1}
SYMBOL res -400 176 R90
WINDOW 0 0 56 VBottom 2
WINDOW 3 32 56 VTop 2
SYMATTR InstName R7
SYMATTR Value {R1}
SYMBOL cap -336 112 R0
SYMATTR InstName C3
SYMATTR Value {C1*2}
SYMBOL cap -448 -112 R90
WINDOW 0 0 32 VBottom 2
WINDOW 3 32 32 VTop 2
SYMATTR InstName C4
SYMATTR Value {C1}
SYMBOL cap -160 -112 R90
WINDOW 0 0 32 VBottom 2
WINDOW 3 32 32 VTop 2
SYMATTR InstName C5
SYMATTR Value {C1}
SYMBOL OpAmps\\UniversalOpAmp2 -48 96 R0
SYMATTR InstName U2
SYMATTR Value2 Avol=100k GBW=1.2Meg Slew=0.5Meg
SYMATTR SpiceLine Ilimit=40m Rail=0 Vos=0.6m
SYMATTR SpiceLine2 En=3u Enk=0 In=0 Ink=0 Rin=10Meg
SYMBOL voltage -2064 208 R0
WINDOW 3 -37 131 Left 0
WINDOW 123 0 0 Left 0
WINDOW 39 0 0 Left 0
SYMATTR InstName VEKG
SYMATTR Value PWL file=C:\Users\daria\Desktop\ECG\LTSpice\ECG-LTSPICE.txt
SYMBOL OpAmps\\AD8222 -960 32 R0
SYMATTR InstName U3
SYMBOL res -1072 -16 R0
SYMATTR InstName R8
SYMATTR Value 999
SYMBOL voltage -1968 208 R0
WINDOW 123 0 0 Left 0
WINDOW 39 0 0 Left 0
SYMATTR InstName V2
SYMATTR Value 1.65
SYMBOL voltage -1760 208 R0
WINDOW 123 0 0 Left 0
WINDOW 39 0 0 Left 0
SYMATTR InstName VNoise
SYMATTR Value SINE(0 500m 50)
SYMBOL e -1536 96 R0
SYMATTR InstName RightArm
SYMATTR Value 0.5
SYMBOL e -1536 -32 R0
SYMATTR InstName LeftArm
SYMATTR Value 0.5
TEXT -2080 -24 Left 2 !.param R1 30k
TEXT -2080 0 Left 2 !.param C1 100n
TEXT -2080 24 Left 2 !.param R2 1k
TEXT -2080 48 Left 2 !.param R3 60k
TEXT -2080 72 Left 2 !.param C2 22n
TEXT -2080 96 Left 2 ;.ac dec 100 0.1 1000
TEXT -2080 120 Left 2 !.tran 0 1 0.01 0.0001
